<additional xmlns:xsi="http://www.w3.org/2001/XMLSchema-instance" xsi:noNamespaceSchemaLocation="http://sumo.dlr.de/xsd/additional_file.xsd">
    <laneAreaDetector file="e2output.xml" freq="10" friendlyPos="x" id="e2det_-E1_0" lane="-E1_0" length="38.17" pos="30"/>
    <laneAreaDetector file="e2output.xml" freq="10" friendlyPos="x" id="e2det_-E1_1" lane="-E1_1" length="38.17" pos="30"/>
    <laneAreaDetector file="e2output.xml" freq="10" friendlyPos="x" id="e2det_-E1_2" lane="-E1_2" length="38.17" pos="30"/>
    <laneAreaDetector file="e2output.xml" freq="10" friendlyPos="x" id="e2det_-E2_0" lane="-E2_0" length="38.17" pos="30"/>
    <laneAreaDetector file="e2output.xml" freq="10" friendlyPos="x" id="e2det_-E2_1" lane="-E2_1" length="38.17" pos="30"/>
    <laneAreaDetector file="e2output.xml" freq="10" friendlyPos="x" id="e2det_-E2_2" lane="-E2_2" length="38.17" pos="30"/>
    <laneAreaDetector file="e2output.xml" freq="10" friendlyPos="x" id="e2det_-E3_0" lane="-E3_0" length="38.17" pos="30"/>
    <laneAreaDetector file="e2output.xml" freq="10" friendlyPos="x" id="e2det_-E3_1" lane="-E3_1" length="38.17" pos="30"/>
    <laneAreaDetector file="e2output.xml" freq="10" friendlyPos="x" id="e2det_-E3_2" lane="-E3_2" length="38.17" pos="30"/>
    <laneAreaDetector file="e2output.xml" freq="10" friendlyPos="x" id="e2det_E0_0" lane="E0_0" length="38.17" pos="30"/>
    <laneAreaDetector file="e2output.xml" freq="10" friendlyPos="x" id="e2det_E0_1" lane="E0_1" length="38.17" pos="30"/>
    <laneAreaDetector file="e2output.xml" freq="10" friendlyPos="x" id="e2det_E0_2" lane="E0_2" length="38.17" pos="30"/>
</additional>
