<?xml version="1.0" encoding="UTF-8"?>

<!-- generated on 2022-09-05 23:10:40 by Eclipse SUMO netedit Version 1.14.1
<configuration xmlns:xsi="http://www.w3.org/2001/XMLSchema-instance" xsi:noNamespaceSchemaLocation="http://sumo.dlr.de/xsd/netconvertConfiguration.xsd">

    <input>
        <sumo-net-file value="C:\Users\kawan\OneDrive\Desktop\Sumo%20Sims\test.net.xml"/>
    </input>

    <output>
        <output-file value="C:\Users\kawan\OneDrive\Desktop\Sumo%20Sims\test.net.xml"/>
    </output>

    <processing>
        <geometry.min-radius.fix.railways value="false"/>
        <geometry.max-grade.fix value="false"/>
        <offset.disable-normalization value="true"/>
        <lefthand value="false"/>
    </processing>

    <junctions>
        <no-turnarounds value="true"/>
        <junctions.corner-detail value="5"/>
        <junctions.limit-turn-speed value="5.5"/>
        <rectangular-lane-cut value="false"/>
    </junctions>

    <pedestrian>
        <walkingareas value="false"/>
    </pedestrian>

</configuration>
-->

<net version="1.9" junctionCornerDetail="5" limitTurnSpeed="5.50" xmlns:xsi="http://www.w3.org/2001/XMLSchema-instance" xsi:noNamespaceSchemaLocation="http://sumo.dlr.de/xsd/net_file.xsd">

    <location netOffset="0.00,0.00" convBoundary="-100.00,-100.00,100.00,100.00" origBoundary="-10000000000.00,-10000000000.00,10000000000.00,10000000000.00" projParameter="!"/>

    <edge id=":J1_0" function="internal">
        <lane id=":J1_0_0" index="0" speed="12.49" length="36.09" shape="-86.44,15.82 -92.37,7.91 -94.35,-0.00 -92.37,-7.91 -86.44,-15.82"/>
    </edge>
    <edge id=":J1_1" function="internal">
        <lane id=":J1_1_0" index="0" speed="8.81" length="27.87" shape="-86.44,15.82 -90.88,9.10 -91.67,2.40 -88.71,-2.74 -81.87,-4.80"/>
        <lane id=":J1_1_1" index="1" speed="8.18" length="23.78" shape="-86.44,15.82 -90.12,10.12 -90.56,4.46 -87.80,0.13 -81.87,-1.60"/>
    </edge>
    <edge id=":J1_3" function="internal">
        <lane id=":J1_3_0" index="0" speed="5.47" length="9.74" shape="-81.87,8.00 -84.97,8.35 -86.38,9.39 -86.12,11.13 -84.18,13.56"/>
    </edge>
    <edge id=":J1_4" function="internal">
        <lane id=":J1_4_0" index="0" speed="8.18" length="23.78" shape="-81.87,1.60 -87.80,-0.13 -90.56,-4.46 -90.12,-10.12 -86.44,-15.82"/>
    </edge>
    <edge id=":J1_5" function="internal">
        <lane id=":J1_5_0" index="0" speed="5.47" length="9.74" shape="-84.18,-13.56 -86.12,-11.13 -86.38,-9.39 -84.97,-8.35 -81.87,-8.00"/>
    </edge>
    <edge id=":J1_6" function="internal">
        <lane id=":J1_6_0" index="0" speed="11.59" length="30.93" shape="-84.18,-13.56 -89.26,-6.78 -90.96,-0.00 -89.26,6.78 -84.18,13.56"/>
    </edge>
    <edge id=":J2_0" function="internal">
        <lane id=":J2_0_0" index="0" speed="6.51" length="9.03" shape="-8.00,13.60 -8.35,11.15 -9.40,9.40 -11.15,8.35 -13.60,8.00"/>
    </edge>
    <edge id=":J2_1" function="internal">
        <lane id=":J2_1_0" index="0" speed="13.89" length="27.20" shape="-8.00,13.60 -8.00,-13.60"/>
        <lane id=":J2_1_1" index="1" speed="13.89" length="27.20" shape="-4.80,13.60 -4.80,-13.60"/>
    </edge>
    <edge id=":J2_3" function="internal">
        <lane id=":J2_3_0" index="0" speed="11.07" length="28.10" shape="-4.80,13.60 -3.14,7.07 1.15,1.15 7.07,-3.14 13.60,-4.80"/>
    </edge>
    <edge id=":J2_4" function="internal">
        <lane id=":J2_4_0" index="0" speed="3.65" length="4.67" shape="-1.60,13.60 -0.80,12.40 -0.00,12.00 0.80,12.40 1.60,13.60"/>
    </edge>
    <edge id=":J2_5" function="internal">
        <lane id=":J2_5_0" index="0" speed="6.51" length="9.03" shape="13.60,8.00 11.15,8.35 9.40,9.40 8.35,11.15 8.00,13.60"/>
    </edge>
    <edge id=":J2_6" function="internal">
        <lane id=":J2_6_0" index="0" speed="13.89" length="27.20" shape="13.60,8.00 -13.60,8.00"/>
        <lane id=":J2_6_1" index="1" speed="13.89" length="27.20" shape="13.60,4.80 -13.60,4.80"/>
    </edge>
    <edge id=":J2_8" function="internal">
        <lane id=":J2_8_0" index="0" speed="11.07" length="28.10" shape="13.60,4.80 7.07,3.14 1.15,-1.15 -3.14,-7.07 -4.80,-13.60"/>
    </edge>
    <edge id=":J2_9" function="internal">
        <lane id=":J2_9_0" index="0" speed="3.65" length="4.67" shape="13.60,1.60 12.40,0.80 12.00,0.00 12.40,-0.80 13.60,-1.60"/>
    </edge>
    <edge id=":J2_10" function="internal">
        <lane id=":J2_10_0" index="0" speed="6.51" length="9.03" shape="8.00,-13.60 8.35,-11.15 9.40,-9.40 11.15,-8.35 13.60,-8.00"/>
    </edge>
    <edge id=":J2_11" function="internal">
        <lane id=":J2_11_0" index="0" speed="13.89" length="27.20" shape="8.00,-13.60 8.00,13.60"/>
        <lane id=":J2_11_1" index="1" speed="13.89" length="27.20" shape="4.80,-13.60 4.80,13.60"/>
    </edge>
    <edge id=":J2_13" function="internal">
        <lane id=":J2_13_0" index="0" speed="11.07" length="28.10" shape="4.80,-13.60 3.14,-7.07 -1.15,-1.15 -7.07,3.14 -13.60,4.80"/>
    </edge>
    <edge id=":J2_14" function="internal">
        <lane id=":J2_14_0" index="0" speed="3.65" length="4.67" shape="1.60,-13.60 0.80,-12.40 0.00,-12.00 -0.80,-12.40 -1.60,-13.60"/>
    </edge>
    <edge id=":J2_15" function="internal">
        <lane id=":J2_15_0" index="0" speed="6.51" length="9.03" shape="-13.60,-8.00 -11.15,-8.35 -9.40,-9.40 -8.35,-11.15 -8.00,-13.60"/>
    </edge>
    <edge id=":J2_16" function="internal">
        <lane id=":J2_16_0" index="0" speed="13.89" length="27.20" shape="-13.60,-8.00 13.60,-8.00"/>
        <lane id=":J2_16_1" index="1" speed="13.89" length="27.20" shape="-13.60,-4.80 13.60,-4.80"/>
    </edge>
    <edge id=":J2_18" function="internal">
        <lane id=":J2_18_0" index="0" speed="11.07" length="28.10" shape="-13.60,-4.80 -7.07,-3.14 -1.15,1.15 3.14,7.07 4.80,13.60"/>
    </edge>
    <edge id=":J2_19" function="internal">
        <lane id=":J2_19_0" index="0" speed="3.65" length="4.67" shape="-13.60,-1.60 -12.40,-0.80 -12.00,-0.00 -12.40,0.80 -13.60,1.60"/>
    </edge>
    <edge id=":J3_0" function="internal">
        <lane id=":J3_0_0" index="0" speed="12.49" length="36.09" shape="86.44,-15.82 92.37,-7.91 94.35,0.00 92.37,7.91 86.44,15.82"/>
    </edge>
    <edge id=":J3_1" function="internal">
        <lane id=":J3_1_0" index="0" speed="8.81" length="27.87" shape="86.44,-15.82 90.88,-9.10 91.67,-2.40 88.71,2.74 81.87,4.80"/>
        <lane id=":J3_1_1" index="1" speed="8.18" length="23.78" shape="86.44,-15.82 90.12,-10.12 90.56,-4.46 87.80,-0.13 81.87,1.60"/>
    </edge>
    <edge id=":J3_3" function="internal">
        <lane id=":J3_3_0" index="0" speed="5.47" length="9.74" shape="81.87,-8.00 84.97,-8.35 86.38,-9.39 86.12,-11.13 84.18,-13.56"/>
    </edge>
    <edge id=":J3_4" function="internal">
        <lane id=":J3_4_0" index="0" speed="8.18" length="23.78" shape="81.87,-1.60 87.80,0.13 90.56,4.46 90.12,10.12 86.44,15.82"/>
    </edge>
    <edge id=":J3_5" function="internal">
        <lane id=":J3_5_0" index="0" speed="5.47" length="9.74" shape="84.18,13.56 86.12,11.13 86.38,9.39 84.97,8.35 81.87,8.00"/>
    </edge>
    <edge id=":J3_6" function="internal">
        <lane id=":J3_6_0" index="0" speed="11.59" length="30.93" shape="84.18,13.56 89.26,6.78 90.96,0.00 89.26,-6.78 84.18,-13.56"/>
    </edge>
    <edge id=":J4_0" function="internal">
        <lane id=":J4_0_0" index="0" speed="12.49" length="36.09" shape="15.82,86.44 7.91,92.37 -0.00,94.35 -7.91,92.37 -15.82,86.44"/>
    </edge>
    <edge id=":J4_1" function="internal">
        <lane id=":J4_1_0" index="0" speed="8.81" length="27.87" shape="15.82,86.44 9.10,90.88 2.40,91.67 -2.74,88.71 -4.80,81.87"/>
        <lane id=":J4_1_1" index="1" speed="8.18" length="23.78" shape="15.82,86.44 10.12,90.12 4.46,90.56 0.13,87.80 -1.60,81.87"/>
    </edge>
    <edge id=":J4_3" function="internal">
        <lane id=":J4_3_0" index="0" speed="5.47" length="9.74" shape="8.00,81.87 8.35,84.97 9.39,86.38 11.13,86.12 13.56,84.18"/>
    </edge>
    <edge id=":J4_4" function="internal">
        <lane id=":J4_4_0" index="0" speed="8.18" length="23.78" shape="1.60,81.87 -0.13,87.80 -4.46,90.56 -10.12,90.12 -15.82,86.44"/>
    </edge>
    <edge id=":J4_5" function="internal">
        <lane id=":J4_5_0" index="0" speed="5.47" length="9.74" shape="-13.56,84.18 -11.13,86.12 -9.39,86.38 -8.35,84.97 -8.00,81.87"/>
    </edge>
    <edge id=":J4_6" function="internal">
        <lane id=":J4_6_0" index="0" speed="11.59" length="30.93" shape="-13.56,84.18 -6.78,89.26 -0.00,90.96 6.78,89.26 13.56,84.18"/>
    </edge>
    <edge id=":J5_0" function="internal">
        <lane id=":J5_0_0" index="0" speed="5.47" length="9.74" shape="-8.00,-81.87 -8.35,-84.97 -9.39,-86.38 -11.13,-86.12 -13.56,-84.18"/>
    </edge>
    <edge id=":J5_1" function="internal">
        <lane id=":J5_1_0" index="0" speed="8.18" length="23.78" shape="-1.60,-81.87 0.13,-87.80 4.46,-90.56 10.12,-90.12 15.82,-86.44"/>
    </edge>
    <edge id=":J5_2" function="internal">
        <lane id=":J5_2_0" index="0" speed="5.47" length="9.74" shape="13.56,-84.18 11.13,-86.12 9.39,-86.38 8.35,-84.97 8.00,-81.87"/>
    </edge>
    <edge id=":J5_3" function="internal">
        <lane id=":J5_3_0" index="0" speed="11.59" length="30.93" shape="13.56,-84.18 6.78,-89.26 0.00,-90.96 -6.78,-89.26 -13.56,-84.18"/>
    </edge>
    <edge id=":J5_4" function="internal">
        <lane id=":J5_4_0" index="0" speed="12.49" length="36.09" shape="-15.82,-86.44 -7.91,-92.37 0.00,-94.35 7.91,-92.37 15.82,-86.44"/>
    </edge>
    <edge id=":J5_5" function="internal">
        <lane id=":J5_5_0" index="0" speed="8.81" length="27.87" shape="-15.82,-86.44 -9.10,-90.88 -2.40,-91.67 2.74,-88.71 4.80,-81.87"/>
        <lane id=":J5_5_1" index="1" speed="8.18" length="23.78" shape="-15.82,-86.44 -10.12,-90.12 -4.46,-90.56 -0.13,-87.80 1.60,-81.87"/>
    </edge>

    <edge id="-E0" from="J2" to="J1" priority="-1">
        <lane id="-E0_0" index="0" speed="13.89" length="68.27" shape="-13.60,8.00 -81.87,8.00"/>
        <lane id="-E0_1" index="1" speed="13.89" length="68.27" shape="-13.60,4.80 -81.87,4.80"/>
        <lane id="-E0_2" index="2" speed="13.89" length="68.27" shape="-13.60,1.60 -81.87,1.60"/>
    </edge>
    <edge id="-E1" from="J3" to="J2" priority="-1">
        <lane id="-E1_0" index="0" speed="13.89" length="68.27" shape="81.87,8.00 13.60,8.00"/>
        <lane id="-E1_1" index="1" speed="13.89" length="68.27" shape="81.87,4.80 13.60,4.80"/>
        <lane id="-E1_2" index="2" speed="13.89" length="68.27" shape="81.87,1.60 13.60,1.60"/>
    </edge>
    <edge id="-E2" from="J4" to="J2" priority="-1">
        <lane id="-E2_0" index="0" speed="13.89" length="68.27" shape="-8.00,81.87 -8.00,13.60"/>
        <lane id="-E2_1" index="1" speed="13.89" length="68.27" shape="-4.80,81.87 -4.80,13.60"/>
        <lane id="-E2_2" index="2" speed="13.89" length="68.27" shape="-1.60,81.87 -1.60,13.60"/>
    </edge>
    <edge id="-E3" from="J5" to="J2" priority="-1">
        <lane id="-E3_0" index="0" speed="13.89" length="68.27" shape="8.00,-81.87 8.00,-13.60"/>
        <lane id="-E3_1" index="1" speed="13.89" length="68.27" shape="4.80,-81.87 4.80,-13.60"/>
        <lane id="-E3_2" index="2" speed="13.89" length="68.27" shape="1.60,-81.87 1.60,-13.60"/>
    </edge>
    <edge id="-E6" from="J4" to="J1" priority="-1">
        <lane id="-E6_0" index="0" speed="13.89" length="99.87" shape="-15.82,86.44 -86.44,15.82"/>
    </edge>
    <edge id="-E7" from="J3" to="J4" priority="-1">
        <lane id="-E7_0" index="0" speed="13.89" length="99.87" shape="86.44,15.82 15.82,86.44"/>
    </edge>
    <edge id="-E8" from="J5" to="J3" priority="-1">
        <lane id="-E8_0" index="0" speed="13.89" length="99.87" shape="15.82,-86.44 86.44,-15.82"/>
    </edge>
    <edge id="-E9" from="J1" to="J5" priority="-1">
        <lane id="-E9_0" index="0" speed="13.89" length="99.87" shape="-86.44,-15.82 -15.82,-86.44"/>
    </edge>
    <edge id="E0" from="J1" to="J2" priority="-1">
        <lane id="E0_0" index="0" speed="13.89" length="68.27" shape="-81.87,-8.00 -13.60,-8.00"/>
        <lane id="E0_1" index="1" speed="13.89" length="68.27" shape="-81.87,-4.80 -13.60,-4.80"/>
        <lane id="E0_2" index="2" speed="13.89" length="68.27" shape="-81.87,-1.60 -13.60,-1.60"/>
    </edge>
    <edge id="E1" from="J2" to="J3" priority="-1">
        <lane id="E1_0" index="0" speed="13.89" length="68.27" shape="13.60,-8.00 81.87,-8.00"/>
        <lane id="E1_1" index="1" speed="13.89" length="68.27" shape="13.60,-4.80 81.87,-4.80"/>
        <lane id="E1_2" index="2" speed="13.89" length="68.27" shape="13.60,-1.60 81.87,-1.60"/>
    </edge>
    <edge id="E2" from="J2" to="J4" priority="-1">
        <lane id="E2_0" index="0" speed="13.89" length="68.27" shape="8.00,13.60 8.00,81.87"/>
        <lane id="E2_1" index="1" speed="13.89" length="68.27" shape="4.80,13.60 4.80,81.87"/>
        <lane id="E2_2" index="2" speed="13.89" length="68.27" shape="1.60,13.60 1.60,81.87"/>
    </edge>
    <edge id="E3" from="J2" to="J5" priority="-1">
        <lane id="E3_0" index="0" speed="13.89" length="68.27" shape="-8.00,-13.60 -8.00,-81.87"/>
        <lane id="E3_1" index="1" speed="13.89" length="68.27" shape="-4.80,-13.60 -4.80,-81.87"/>
        <lane id="E3_2" index="2" speed="13.89" length="68.27" shape="-1.60,-13.60 -1.60,-81.87"/>
    </edge>
    <edge id="E6" from="J1" to="J4" priority="-1">
        <lane id="E6_0" index="0" speed="13.89" length="99.87" shape="-84.18,13.56 -13.56,84.18"/>
    </edge>
    <edge id="E7" from="J4" to="J3" priority="-1">
        <lane id="E7_0" index="0" speed="13.89" length="99.87" shape="13.56,84.18 84.18,13.56"/>
    </edge>
    <edge id="E8" from="J3" to="J5" priority="-1">
        <lane id="E8_0" index="0" speed="13.89" length="99.87" shape="84.18,-13.56 13.56,-84.18"/>
    </edge>
    <edge id="E9" from="J5" to="J1" priority="-1">
        <lane id="E9_0" index="0" speed="13.89" length="99.87" shape="-13.56,-84.18 -84.18,-13.56"/>
    </edge>

    <tlLogic id="J2" type="static" programID="0" offset="0">
        <phase duration="12" state="GGGGGGrrrGGrrrGGrrrG"/>
        <phase duration="1.5"  state="GyyyGGrrrGGrrrGGrrrG"/>
        <phase duration="12" state="GrrrGGGGGGGrrrGGrrrG"/>
        <phase duration="1.5"  state="GrrrGGyyyGGrrrGGrrrG"/>
        <phase duration="12" state="GrrrGGrrrGGGGGGGrrrG"/>
        <phase duration="1.5"  state="GrrrGGrrrGGyyyGGrrrG"/>
        <phase duration="12" state="GrrrGGrrrGgrrrGGGGGG"/>
        <phase duration="1.5"  state="GrrrGGrrrGGrrrGGyyyG"/>
    </tlLogic>

    <junction id="J1" type="priority" x="-100.00" y="0.00" incLanes="-E6_0 -E0_0 -E0_1 -E0_2 E9_0" intLanes=":J1_0_0 :J1_1_0 :J1_1_1 :J1_3_0 :J1_4_0 :J1_5_0 :J1_6_0" shape="-87.57,16.95 -83.05,12.43 -84.17,10.86 -84.17,10.31 -83.78,9.91 -83.02,9.68 -81.87,9.60 -81.87,-9.60 -83.78,-9.91 -84.17,-10.31 -84.17,-10.86 -83.80,-11.56 -83.05,-12.43 -87.57,-16.95 -92.28,-11.30 -95.11,-5.65 -96.05,0.00 -95.11,5.65 -92.28,11.30">
        <request index="0" response="0010000" foes="0010000" cont="0"/>
        <request index="1" response="1010000" foes="1010000" cont="0"/>
        <request index="2" response="1010000" foes="1010000" cont="0"/>
        <request index="3" response="0000000" foes="1000000" cont="0"/>
        <request index="4" response="0000000" foes="1000111" cont="0"/>
        <request index="5" response="0000000" foes="0000000" cont="0"/>
        <request index="6" response="0011000" foes="0011110" cont="0"/>
    </junction>
    <junction id="J2" type="traffic_light" x="0.00" y="0.00" incLanes="-E2_0 -E2_1 -E2_2 -E1_0 -E1_1 -E1_2 -E3_0 -E3_1 -E3_2 E0_0 E0_1 E0_2" intLanes=":J2_0_0 :J2_1_0 :J2_1_1 :J2_3_0 :J2_4_0 :J2_5_0 :J2_6_0 :J2_6_1 :J2_8_0 :J2_9_0 :J2_10_0 :J2_11_0 :J2_11_1 :J2_13_0 :J2_14_0 :J2_15_0 :J2_16_0 :J2_16_1 :J2_18_0 :J2_19_0" shape="-9.60,13.60 9.60,13.60 10.04,11.38 10.60,10.60 11.38,10.04 12.38,9.71 13.60,9.60 13.60,-9.60 11.38,-10.04 10.60,-10.60 10.04,-11.38 9.71,-12.38 9.60,-13.60 -9.60,-13.60 -10.04,-11.38 -10.60,-10.60 -11.38,-10.04 -12.38,-9.71 -13.60,-9.60 -13.60,9.60 -11.38,10.04 -10.60,10.60 -10.04,11.38 -9.71,12.38">
        <request index="0"  response="00000000000000000000" foes="00000000000011000000" cont="0"/>
        <request index="1"  response="00000000000000000000" foes="01111010000111000000" cont="0"/>
        <request index="2"  response="00000000000000000000" foes="01111010000111000000" cont="0"/>
        <request index="3"  response="00000001100000000000" foes="01110001100111000000" cont="0"/>
        <request index="4"  response="00000000000000000000" foes="00000000000000000000" cont="0"/>
        <request index="5"  response="00000001100000000000" foes="00000001100000000000" cont="0"/>
        <request index="6"  response="00000011100000001111" foes="01000011100000001111" cont="0"/>
        <request index="7"  response="00000011100000001111" foes="01000011100000001111" cont="0"/>
        <request index="8"  response="00110011100000001110" foes="00110011100000001110" cont="0"/>
        <request index="9"  response="00000000000000000000" foes="00000000000000000000" cont="0"/>
        <request index="10" response="00000000000000000000" foes="00110000000000000000" cont="0"/>
        <request index="11" response="00000000000000000000" foes="01110000000111101000" cont="0"/>
        <request index="12" response="00000000000000000000" foes="01110000000111101000" cont="0"/>
        <request index="13" response="00000000000000000110" foes="01110000000111000110" cont="0"/>
        <request index="14" response="00000000000000000000" foes="00000000000000000000" cont="0"/>
        <request index="15" response="00000000000000000110" foes="00000000000000000110" cont="0"/>
        <request index="16" response="00000011110000001110" foes="00000011110100001110" cont="0"/>
        <request index="17" response="00000011110000001110" foes="00000011110100001110" cont="0"/>
        <request index="18" response="00000011100011001110" foes="00000011100011001110" cont="0"/>
        <request index="19" response="00000000000000000000" foes="00000000000000000000" cont="0"/>
    </junction>
    <junction id="J3" type="priority" x="100.00" y="0.00" incLanes="-E8_0 E1_0 E1_1 E1_2 E7_0" intLanes=":J3_0_0 :J3_1_0 :J3_1_1 :J3_3_0 :J3_4_0 :J3_5_0 :J3_6_0" shape="87.57,-16.95 83.05,-12.43 84.17,-10.86 84.17,-10.31 83.78,-9.91 83.02,-9.68 81.87,-9.60 81.87,9.60 83.78,9.91 84.17,10.31 84.17,10.86 83.80,11.56 83.05,12.43 87.57,16.95 92.28,11.30 95.11,5.65 96.05,-0.00 95.11,-5.65 92.28,-11.30">
        <request index="0" response="0010000" foes="0010000" cont="0"/>
        <request index="1" response="1010000" foes="1010000" cont="0"/>
        <request index="2" response="1010000" foes="1010000" cont="0"/>
        <request index="3" response="0000000" foes="1000000" cont="0"/>
        <request index="4" response="0000000" foes="1000111" cont="0"/>
        <request index="5" response="0000000" foes="0000000" cont="0"/>
        <request index="6" response="0011000" foes="0011110" cont="0"/>
    </junction>
    <junction id="J4" type="priority" x="0.00" y="100.00" incLanes="-E7_0 E2_0 E2_1 E2_2 E6_0" intLanes=":J4_0_0 :J4_1_0 :J4_1_1 :J4_3_0 :J4_4_0 :J4_5_0 :J4_6_0" shape="16.95,87.57 12.43,83.05 10.86,84.17 10.31,84.17 9.91,83.78 9.68,83.02 9.60,81.87 -9.60,81.87 -9.91,83.78 -10.31,84.17 -10.86,84.17 -11.56,83.80 -12.43,83.05 -16.95,87.57 -11.30,92.28 -5.65,95.11 0.00,96.05 5.65,95.11 11.30,92.28">
        <request index="0" response="0010000" foes="0010000" cont="0"/>
        <request index="1" response="1010000" foes="1010000" cont="0"/>
        <request index="2" response="1010000" foes="1010000" cont="0"/>
        <request index="3" response="0000000" foes="1000000" cont="0"/>
        <request index="4" response="0000000" foes="1000111" cont="0"/>
        <request index="5" response="0000000" foes="0000000" cont="0"/>
        <request index="6" response="0011000" foes="0011110" cont="0"/>
    </junction>
    <junction id="J5" type="priority" x="0.00" y="-100.00" incLanes="E3_0 E3_1 E3_2 E8_0 -E9_0" intLanes=":J5_0_0 :J5_1_0 :J5_2_0 :J5_3_0 :J5_4_0 :J5_5_0 :J5_5_1" shape="-9.60,-81.87 9.60,-81.87 9.91,-83.78 10.31,-84.17 10.86,-84.17 11.56,-83.80 12.43,-83.05 16.95,-87.57 11.30,-92.28 5.65,-95.11 -0.00,-96.05 -5.65,-95.11 -11.30,-92.28 -16.95,-87.57 -12.43,-83.05 -10.86,-84.17 -10.31,-84.17 -9.91,-83.78 -9.68,-83.02">
        <request index="0" response="0000000" foes="0001000" cont="0"/>
        <request index="1" response="0000000" foes="1111000" cont="0"/>
        <request index="2" response="0000000" foes="0000000" cont="0"/>
        <request index="3" response="0000011" foes="1100011" cont="0"/>
        <request index="4" response="0000010" foes="0000010" cont="0"/>
        <request index="5" response="0001010" foes="0001010" cont="0"/>
        <request index="6" response="0001010" foes="0001010" cont="0"/>
    </junction>

    <connection from="-E0" to="E6" fromLane="0" toLane="0" via=":J1_3_0" dir="r" state="M"/>
    <connection from="-E0" to="-E9" fromLane="2" toLane="0" via=":J1_4_0" dir="l" state="M"/>
    <connection from="-E1" to="E2" fromLane="0" toLane="0" via=":J2_5_0" tl="J2" linkIndex="5" dir="r" state="o"/>
    <connection from="-E1" to="-E0" fromLane="0" toLane="0" via=":J2_6_0" tl="J2" linkIndex="6" dir="s" state="o"/>
    <connection from="-E1" to="-E0" fromLane="1" toLane="1" via=":J2_6_1" tl="J2" linkIndex="7" dir="s" state="o"/>
    <connection from="-E1" to="E3" fromLane="1" toLane="1" via=":J2_8_0" tl="J2" linkIndex="8" dir="l" state="o"/>
    <connection from="-E1" to="E1" fromLane="2" toLane="2" via=":J2_9_0" tl="J2" linkIndex="9" dir="t" state="O"/>
    <connection from="-E2" to="-E0" fromLane="0" toLane="0" via=":J2_0_0" tl="J2" linkIndex="0" dir="r" state="O"/>
    <connection from="-E2" to="E3" fromLane="0" toLane="0" via=":J2_1_0" tl="J2" linkIndex="1" dir="s" state="O"/>
    <connection from="-E2" to="E3" fromLane="1" toLane="1" via=":J2_1_1" tl="J2" linkIndex="2" dir="s" state="O"/>
    <connection from="-E2" to="E1" fromLane="1" toLane="1" via=":J2_3_0" tl="J2" linkIndex="3" dir="l" state="o"/>
    <connection from="-E2" to="E2" fromLane="2" toLane="2" via=":J2_4_0" tl="J2" linkIndex="4" dir="t" state="O"/>
    <connection from="-E3" to="E1" fromLane="0" toLane="0" via=":J2_10_0" tl="J2" linkIndex="10" dir="r" state="O"/>
    <connection from="-E3" to="E2" fromLane="0" toLane="0" via=":J2_11_0" tl="J2" linkIndex="11" dir="s" state="O"/>
    <connection from="-E3" to="E2" fromLane="1" toLane="1" via=":J2_11_1" tl="J2" linkIndex="12" dir="s" state="O"/>
    <connection from="-E3" to="-E0" fromLane="1" toLane="1" via=":J2_13_0" tl="J2" linkIndex="13" dir="l" state="o"/>
    <connection from="-E3" to="E3" fromLane="2" toLane="2" via=":J2_14_0" tl="J2" linkIndex="14" dir="t" state="O"/>
    <connection from="-E6" to="-E9" fromLane="0" toLane="0" via=":J1_0_0" dir="L" state="m"/>
    <connection from="-E6" to="E0" fromLane="0" toLane="1" via=":J1_1_0" dir="l" state="m"/>
    <connection from="-E6" to="E0" fromLane="0" toLane="2" via=":J1_1_1" dir="l" state="m"/>
    <connection from="-E7" to="-E6" fromLane="0" toLane="0" via=":J4_0_0" dir="L" state="m"/>
    <connection from="-E7" to="-E2" fromLane="0" toLane="1" via=":J4_1_0" dir="l" state="m"/>
    <connection from="-E7" to="-E2" fromLane="0" toLane="2" via=":J4_1_1" dir="l" state="m"/>
    <connection from="-E8" to="-E7" fromLane="0" toLane="0" via=":J3_0_0" dir="L" state="m"/>
    <connection from="-E8" to="-E1" fromLane="0" toLane="1" via=":J3_1_0" dir="l" state="m"/>
    <connection from="-E8" to="-E1" fromLane="0" toLane="2" via=":J3_1_1" dir="l" state="m"/>
    <connection from="-E9" to="-E8" fromLane="0" toLane="0" via=":J5_4_0" dir="L" state="m"/>
    <connection from="-E9" to="-E3" fromLane="0" toLane="1" via=":J5_5_0" dir="l" state="m"/>
    <connection from="-E9" to="-E3" fromLane="0" toLane="2" via=":J5_5_1" dir="l" state="m"/>
    <connection from="E0" to="E3" fromLane="0" toLane="0" via=":J2_15_0" tl="J2" linkIndex="15" dir="r" state="o"/>
    <connection from="E0" to="E1" fromLane="0" toLane="0" via=":J2_16_0" tl="J2" linkIndex="16" dir="s" state="o"/>
    <connection from="E0" to="E1" fromLane="1" toLane="1" via=":J2_16_1" tl="J2" linkIndex="17" dir="s" state="o"/>
    <connection from="E0" to="E2" fromLane="1" toLane="1" via=":J2_18_0" tl="J2" linkIndex="18" dir="l" state="o"/>
    <connection from="E0" to="-E0" fromLane="2" toLane="2" via=":J2_19_0" tl="J2" linkIndex="19" dir="t" state="O"/>
    <connection from="E1" to="E8" fromLane="0" toLane="0" via=":J3_3_0" dir="r" state="M"/>
    <connection from="E1" to="-E7" fromLane="2" toLane="0" via=":J3_4_0" dir="l" state="M"/>
    <connection from="E2" to="E7" fromLane="0" toLane="0" via=":J4_3_0" dir="r" state="M"/>
    <connection from="E2" to="-E6" fromLane="2" toLane="0" via=":J4_4_0" dir="l" state="M"/>
    <connection from="E3" to="E9" fromLane="0" toLane="0" via=":J5_0_0" dir="r" state="M"/>
    <connection from="E3" to="-E8" fromLane="2" toLane="0" via=":J5_1_0" dir="l" state="M"/>
    <connection from="E6" to="-E2" fromLane="0" toLane="0" via=":J4_5_0" dir="r" state="M"/>
    <connection from="E6" to="E7" fromLane="0" toLane="0" via=":J4_6_0" dir="R" state="m"/>
    <connection from="E7" to="-E1" fromLane="0" toLane="0" via=":J3_5_0" dir="r" state="M"/>
    <connection from="E7" to="E8" fromLane="0" toLane="0" via=":J3_6_0" dir="R" state="m"/>
    <connection from="E8" to="-E3" fromLane="0" toLane="0" via=":J5_2_0" dir="r" state="M"/>
    <connection from="E8" to="E9" fromLane="0" toLane="0" via=":J5_3_0" dir="R" state="m"/>
    <connection from="E9" to="E0" fromLane="0" toLane="0" via=":J1_5_0" dir="r" state="M"/>
    <connection from="E9" to="E6" fromLane="0" toLane="0" via=":J1_6_0" dir="R" state="m"/>

    <connection from=":J1_0" to="-E9" fromLane="0" toLane="0" dir="L" state="M"/>
    <connection from=":J1_1" to="E0" fromLane="0" toLane="1" dir="l" state="M"/>
    <connection from=":J1_1" to="E0" fromLane="1" toLane="2" dir="l" state="M"/>
    <connection from=":J1_3" to="E6" fromLane="0" toLane="0" dir="r" state="M"/>
    <connection from=":J1_4" to="-E9" fromLane="0" toLane="0" dir="l" state="M"/>
    <connection from=":J1_5" to="E0" fromLane="0" toLane="0" dir="r" state="M"/>
    <connection from=":J1_6" to="E6" fromLane="0" toLane="0" dir="R" state="M"/>
    <connection from=":J2_0" to="-E0" fromLane="0" toLane="0" dir="r" state="M"/>
    <connection from=":J2_1" to="E3" fromLane="0" toLane="0" dir="s" state="M"/>
    <connection from=":J2_1" to="E3" fromLane="1" toLane="1" dir="s" state="M"/>
    <connection from=":J2_3" to="E1" fromLane="0" toLane="1" dir="l" state="M"/>
    <connection from=":J2_4" to="E2" fromLane="0" toLane="2" dir="t" state="M"/>
    <connection from=":J2_5" to="E2" fromLane="0" toLane="0" dir="r" state="M"/>
    <connection from=":J2_6" to="-E0" fromLane="0" toLane="0" dir="s" state="M"/>
    <connection from=":J2_6" to="-E0" fromLane="1" toLane="1" dir="s" state="M"/>
    <connection from=":J2_8" to="E3" fromLane="0" toLane="1" dir="l" state="M"/>
    <connection from=":J2_9" to="E1" fromLane="0" toLane="2" dir="t" state="M"/>
    <connection from=":J2_10" to="E1" fromLane="0" toLane="0" dir="r" state="M"/>
    <connection from=":J2_11" to="E2" fromLane="0" toLane="0" dir="s" state="M"/>
    <connection from=":J2_11" to="E2" fromLane="1" toLane="1" dir="s" state="M"/>
    <connection from=":J2_13" to="-E0" fromLane="0" toLane="1" dir="l" state="M"/>
    <connection from=":J2_14" to="E3" fromLane="0" toLane="2" dir="t" state="M"/>
    <connection from=":J2_15" to="E3" fromLane="0" toLane="0" dir="r" state="M"/>
    <connection from=":J2_16" to="E1" fromLane="0" toLane="0" dir="s" state="M"/>
    <connection from=":J2_16" to="E1" fromLane="1" toLane="1" dir="s" state="M"/>
    <connection from=":J2_18" to="E2" fromLane="0" toLane="1" dir="l" state="M"/>
    <connection from=":J2_19" to="-E0" fromLane="0" toLane="2" dir="t" state="M"/>
    <connection from=":J3_0" to="-E7" fromLane="0" toLane="0" dir="L" state="M"/>
    <connection from=":J3_1" to="-E1" fromLane="0" toLane="1" dir="l" state="M"/>
    <connection from=":J3_1" to="-E1" fromLane="1" toLane="2" dir="l" state="M"/>
    <connection from=":J3_3" to="E8" fromLane="0" toLane="0" dir="r" state="M"/>
    <connection from=":J3_4" to="-E7" fromLane="0" toLane="0" dir="l" state="M"/>
    <connection from=":J3_5" to="-E1" fromLane="0" toLane="0" dir="r" state="M"/>
    <connection from=":J3_6" to="E8" fromLane="0" toLane="0" dir="R" state="M"/>
    <connection from=":J4_0" to="-E6" fromLane="0" toLane="0" dir="L" state="M"/>
    <connection from=":J4_1" to="-E2" fromLane="0" toLane="1" dir="l" state="M"/>
    <connection from=":J4_1" to="-E2" fromLane="1" toLane="2" dir="l" state="M"/>
    <connection from=":J4_3" to="E7" fromLane="0" toLane="0" dir="r" state="M"/>
    <connection from=":J4_4" to="-E6" fromLane="0" toLane="0" dir="l" state="M"/>
    <connection from=":J4_5" to="-E2" fromLane="0" toLane="0" dir="r" state="M"/>
    <connection from=":J4_6" to="E7" fromLane="0" toLane="0" dir="R" state="M"/>
    <connection from=":J5_0" to="E9" fromLane="0" toLane="0" dir="r" state="M"/>
    <connection from=":J5_1" to="-E8" fromLane="0" toLane="0" dir="l" state="M"/>
    <connection from=":J5_2" to="-E3" fromLane="0" toLane="0" dir="r" state="M"/>
    <connection from=":J5_3" to="E9" fromLane="0" toLane="0" dir="R" state="M"/>
    <connection from=":J5_4" to="-E8" fromLane="0" toLane="0" dir="L" state="M"/>